** written by FreeCAD inp file writer for CalculiX,Abaqus meshes
** highest dimension mesh elements only.

** Nodes
*Node, NSET=Nall
1, -12.63572883606, 17.78157806396, 97.00569915771
2, -13.76612281799, 15.68231868744, 95.59645080566
3, -13.33060836792, 16.99421882629, 97.26057434082
4, -12.71114635468, 16.70489501953, 94.71089935303
5, -12.04139518738, 18.02216148376, 94.18444061279
6, -12.22872543335, 18.52885055542, 96.71151733398
7, -12.87460136414, 15.52959251404, 92.29257965088
8, -14.37192440033, 12.28276348114, 89.95011901855
9, -14.4125623703, 13.83688926697, 93.13264465332
10, -12.64640522003, 14.40107250214, 89.36386108398
11, -11.50682067871, 16.85394287109, 88.61306762695
12, -11.88672542572, 17.55276298523, 91.53756713867
13, -12.09426689148, 13.14345741272, 86.05390930176
14, -12.66746616364, 9.477540969849, 82.28144073486
15, -13.75372028351, 10.87722110748, 86.2620010376
16, -11.28590011597, 11.58087253571, 82.49186706543
17, -10.24715709686, 13.81662464142, 82.34056091309
18, -10.94564247131, 15.6878490448, 85.51329040527
19, -10.63395881653, 9.930336952209, 79.33203125
20, -9.704067230225, 11.89318847656, 79.47618103027
** ... 22145 like lines cut


** Volume elements
*Element, TYPE=C3D10, ELSET=Evolumes
12132, 10160, 10031, 10157, 10412, 10983, 10981, 10982, 10985, 10984, 10986
12133, 10082, 10183, 10434, 10698, 10989, 10987, 10988, 10991, 10990, 10992
12134, 10142, 10073, 10203, 10362, 10995, 10993, 10994, 10997, 10996, 10998
12135, 1458, 1455, 10003, 10491, 6085, 10999, 11000, 11002, 11001, 11003
12136, 10118, 946, 10292, 10555, 11006, 11004, 11005, 11008, 11007, 11009
12137, 10044, 10214, 10268, 10756, 11012, 11010, 11011, 11014, 11013, 11015
12138, 10342, 10015, 10729, 10860, 11018, 11016, 11017, 11020, 11019, 11021
12139, 2185, 442, 10168, 10334, 8560, 11022, 11023, 11025, 11024, 11026
12140, 10137, 10010, 10229, 10367, 11029, 11027, 11028, 11031, 11030, 11032
12141, 10326, 9987, 10603, 10777, 11035, 11033, 11034, 11037, 11036, 11038
12142, 10010, 10229, 10367, 10542, 11027, 11032, 11030, 11040, 11039, 11041
12143, 10327, 10071, 10441, 10697, 11044, 11042, 11043, 11046, 11045, 11047
12144, 10071, 10204, 10441, 10697, 11049, 11048, 11042, 11045, 11050, 11047
12145, 10319, 10060, 10239, 10511, 11053, 11051, 11052, 11055, 11054, 11056
12146, 10214, 10024, 10267, 10519, 11059, 11057, 11058, 11061, 11060, 11062
12147, 10017, 10153, 10196, 10326, 11065, 11063, 11064, 11067, 11066, 11068
12148, 10658, 10376, 10051, 10831, 11071, 11069, 11070, 11073, 11072, 11074
12149, 10445, 10029, 10097, 10598, 11077, 11075, 11076, 11079, 11078, 11080
12150, 10044, 10286, 10384, 10396, 11083, 11081, 11082, 11085, 11084, 11086
12151, 1539, 1541, 1540, 10720, 6342, 6345, 6341, 11088, 11087, 11089
** ... 12651 like lines cut

** Define element set Eall
*ELSET, ELSET=Eall
Evolumes



***********************************************************
** Element sets for materials and FEM element type (solid, shell, beam, fluid)
** written by write_element_sets_material_and_femelement_type function
*ELSET,ELSET=FluidMaterialSolid
Evolumes

***********************************************************
** Node sets for fixed constraint
** written by write_node_sets_constraints_fixed function
** FemConstraintFixed
*NSET,NSET=FemConstraintFixed
9728,
9729,
9730,
9731,
9732,
9733,
9734,
9735,
9736,
9737,
9738,
9739,
9740,
9741,
9742,
9743,
9744,
9745,
9746,
9747,
** ... 160 like lines cut
** Nsurface
*NSET,NSET=FemConstraintFixed001
1,
2,
3,
4,
5,
6,
7,
8,
9,
10,
11,
12,
13,
14,
15,
16,
17,
18,
19,
20,
** ... 572 like lines cut

***********************************************************
** Materials
** written by write_materials function
** Young's modulus unit is MPa = N/mm2
** FreeCAD material name: ABS
** SolidMaterial
*MATERIAL, NAME=FluidMaterial
*ELASTIC
2300, 0.370

***********************************************************
** Sections
** written by write_femelementsets function
*SOLID SECTION, ELSET=FluidMaterialSolid, MATERIAL=FluidMaterial

***********************************************************
** At least one step is needed to run an CalculiX analysis of FreeCAD
** written by write_step_begin function
*STEP
*STATIC


***********************************************************
** Fixed Constraints
** written by write_constraints_fixed function
** FemConstraintFixed
*BOUNDARY
FemConstraintFixed,1
FemConstraintFixed,2
FemConstraintFixed,3

** Nsurface
*BOUNDARY
FemConstraintFixed001,1
FemConstraintFixed001,2
FemConstraintFixed001,3


***********************************************************
** Node loads Constraints
** written by write_constraints_force function
*CLOAD
** FemConstraintForce
** node loads on shape: Solid:Face3489
367,1,-0.0000000000000E+00
367,2,-0.0000000000000E+00
367,3,-0.0000000000000E+00
370,1,-0.0000000000000E+00
370,2,-0.0000000000000E+00
370,3,-0.0000000000000E+00
1212,1,-0.0000000000000E+00
1212,2,-0.0000000000000E+00
1212,3,-0.0000000000000E+00
3166,1,-7.2641311377839E-01
3166,2,-4.6029977227038E+00
3166,3,-1.5593200710395E+00
7876,1,-7.2641311377839E-01
7876,2,-4.6029977227038E+00
7876,3,-1.5593200710395E+00
7878,1,-7.2641311377839E-01
7878,2,-4.6029977227038E+00
7878,3,-1.5593200710395E+00

** node loads on shape: Solid:Face3495
370,1,-0.0000000000000E+00
370,2,-0.0000000000000E+00
370,3,-0.0000000000000E+00
1212,1,-0.0000000000000E+00
1212,2,-0.0000000000000E+00
1212,3,-0.0000000000000E+00
2004,1,-0.0000000000000E+00
2004,2,-0.0000000000000E+00
2004,3,-0.0000000000000E+00
7878,1,-6.4288786285412E-01
7878,2,-4.0737306534560E+00
7878,3,-1.3800245741185E+00
7883,1,-6.4288786285412E-01
7883,2,-4.0737306534560E+00
7883,3,-1.3800245741185E+00
7887,1,-6.4288786285412E-01
7887,2,-4.0737306534560E+00
7887,3,-1.3800245741185E+00

** node loads on shape: Solid:Face3494
1212,1,-0.0000000000000E+00
1212,2,-0.0000000000000E+00
1212,3,-0.0000000000000E+00
1213,1,-0.0000000000000E+00
1213,2,-0.0000000000000E+00
1213,3,-0.0000000000000E+00
2004,1,-0.0000000000000E+00
2004,2,-0.0000000000000E+00
2004,3,-0.0000000000000E+00
5225,1,-5.0661823478098E-01
5225,2,-3.2102429550694E+00
5225,3,-1.0875078751532E+00
7887,1,-5.0661823478098E-01
7887,2,-3.2102429550694E+00
7887,3,-1.0875078751532E+00
7888,1,-5.0661823478098E-01
7888,2,-3.2102429550694E+00
7888,3,-1.0875078751532E+00

** node loads on shape: Solid:Face1656
1210,1,-0.0000000000000E+00
1210,2,-0.0000000000000E+00
1210,3,-0.0000000000000E+00
1212,1,-0.0000000000000E+00
1212,2,-0.0000000000000E+00
1212,3,-0.0000000000000E+00
1213,1,-0.0000000000000E+00
1213,2,-0.0000000000000E+00
1213,3,-0.0000000000000E+00
5223,1,-5.0661703972769E-01
5223,2,-3.2102353824809E+00
5223,3,-1.0875053098491E+00
5224,1,-5.0661703972769E-01
5224,2,-3.2102353824809E+00
5224,3,-1.0875053098491E+00
5225,1,-5.0661703972769E-01
5225,2,-3.2102353824809E+00
5225,3,-1.0875053098491E+00

** node loads on shape: Solid:Face3488
367,1,-0.0000000000000E+00
367,2,-0.0000000000000E+00
367,3,-0.0000000000000E+00
1212,1,-0.0000000000000E+00
1212,2,-0.0000000000000E+00
1212,3,-0.0000000000000E+00
1215,1,-0.0000000000000E+00
1215,2,-0.0000000000000E+00
1215,3,-0.0000000000000E+00
5228,1,-5.8787624672046E-01
5228,2,-3.7251434115925E+00
5228,3,-1.2619365116228E+00
7876,1,-5.8787624672046E-01
7876,2,-3.7251434115925E+00
7876,3,-1.2619365116228E+00
7877,1,-5.8787624672046E-01
7877,2,-3.7251434115925E+00
7877,3,-1.2619365116228E+00

** node loads on shape: Solid:Face1658
1212,1,-0.0000000000000E+00
1212,2,-0.0000000000000E+00
1212,3,-0.0000000000000E+00
1214,1,-0.0000000000000E+00
1214,2,-0.0000000000000E+00
1214,3,-0.0000000000000E+00
1215,1,-0.0000000000000E+00
1215,2,-0.0000000000000E+00
1215,3,-0.0000000000000E+00
5227,1,-5.8786909481433E-01
5227,2,-3.7250980927415E+00
5227,3,-1.2619211593245E+00
5228,1,-5.8786909481433E-01
5228,2,-3.7250980927415E+00
5228,3,-1.2619211593245E+00
5229,1,-5.8786909481433E-01
5229,2,-3.7250980927415E+00
5229,3,-1.2619211593245E+00

** node loads on shape: Solid:Face1659
1209,1,-0.0000000000000E+00
1209,2,-0.0000000000000E+00
1209,3,-0.0000000000000E+00
1212,1,-0.0000000000000E+00
1212,2,-0.0000000000000E+00
1212,3,-0.0000000000000E+00
1214,1,-0.0000000000000E+00
1214,2,-0.0000000000000E+00
1214,3,-0.0000000000000E+00
5226,1,-7.2640841510902E-01
5226,2,-4.6029679490613E+00
5226,3,-1.5593099848649E+00
5227,1,-7.2640841510902E-01
5227,2,-4.6029679490613E+00
5227,3,-1.5593099848649E+00
5230,1,-7.2640841510902E-01
5230,2,-4.6029679490613E+00
5230,3,-1.5593099848649E+00

** node loads on shape: Solid:Face1657
1209,1,-0.0000000000000E+00
1209,2,-0.0000000000000E+00
1209,3,-0.0000000000000E+00
1210,1,-0.0000000000000E+00
1210,2,-0.0000000000000E+00
1210,3,-0.0000000000000E+00
1212,1,-0.0000000000000E+00
1212,2,-0.0000000000000E+00
1212,3,-0.0000000000000E+00
5222,1,-6.4288382161640E-01
5222,2,-4.0737050457024E+00
5222,3,-1.3800158991882E+00
5223,1,-6.4288382161640E-01
5223,2,-4.0737050457024E+00
5223,3,-1.3800158991882E+00
5226,1,-6.4288382161640E-01
5226,2,-4.0737050457024E+00
5226,3,-1.3800158991882E+00



***********************************************************
** Outputs --> frd file
** written by write_outputs_types function
*NODE FILE
U
*EL FILE
S, E

***********************************************************
** written by write_step_end function
*END STEP 

***********************************************************
** CalculiX Input file
** written by write_footer function
**   written by    --> FreeCAD 0.18.1.
**   written on    --> Mon May 13 15:42:50 2019
**   file name     --> testcase_rabbit.FCStd
**   analysis name --> Analysis
**
**
**
**   Units
**
**   Geometry (mesh data)        --> mm
**   Materials (Young's modulus) --> N/mm2 = MPa
**   Loads (nodal loads)         --> N
**
